[General]
cmdenv-express-mode = true
cmdenv-autoflush = true
cmdenv-status-frequency = 10s
num-rngs = 6

ned-path = .
network = veinsbdi.simulations.PDRtest.PDRnetwork

##########################################################
#            Simulation parameters                       #
##########################################################
debug-on-errors = true
print-undisposed = true

*.playgroundSizeX = 65000m
*.playgroundSizeY = 25000m
*.playgroundSizeZ = 50m

sim-time-limit = 40 s

**.debug = false
**.coreDebug = false

##########################################################
# Annotation parameters                                  #
##########################################################
*.annotations.draw = false

##########################################################
# Obstacle parameters                                    #
##########################################################
*.obstacles.debug = false

##########################################################
#            WorldUtility parameters                     #
##########################################################
*.world.useTorus = false
*.world.use2D = false

##########################################################
#            TraCIScenarioManager parameters             #
##########################################################
*.manager.updateInterval = 0.01s
*.manager.host = "localhost"
*.manager.moduleType = "org.car2x.veins.modules.application.platooning.PlatoonCar"
*.manager.moduleName = "node"
*.manager.moduleDisplayString = ""
*.manager.autoShutdown = true
*.manager.margin = 25

##########################################################
#            11p specific parameters                     #
#                                                        #
#                    NIC-Settings                        #
##########################################################
*.connectionManager.sendDirect = true
*.connectionManager.maxInterfDist = 2600m
*.connectionManager.drawMaxIntfDist = false

*.**.nic.mac1609_4.useServiceChannel = false

*.**.nic.mac1609_4.txPower = 100mW
*.**.nic.mac1609_4.bitrate = 6Mbps

*.**.nic.phy80211p.sensitivity = -94dBm
*.**.nic.phy80211p.maxTXPower = 100mW
*.**.nic.phy80211p.useThermalNoise = true
*.**.nic.phy80211p.thermalNoise = -95dBm
*.**.nic.phy80211p.decider = xmldoc("config.xml")
*.**.nic.phy80211p.analogueModels = xmldoc("config.xml")
*.**.nic.phy80211p.usePropagationDelay = true

##########################################################
#                      Mobility                          #
##########################################################
*.node[*].mobility.x = 0
*.node[*].mobility.y = 0
*.node[*].mobility.z = 1.895


##########################################################
#                    Seeds and PRNGs                     #
##########################################################
seed-set = ${repetition}
**.seed = ${repetition}

*.node[*].unicast.rng-0 = 1
*.node[*].prot.rng-0 = 2
*.node[*].appl.rng-0 = 3
*.node[*].scenario.rng-0 = 4
**.traffic.rng-0 = 5

#launch config. tells Veins which SUMO configuration to run
*.manager.configFile = "./sumocfg/slm.sumo.cfg"

##########################################################
#                   Common parameters                    #
##########################################################

**.numberOfCars = ${nCars = 8}
**.numberOfCarsPerPlatoon = ${platoonSize = 8}
**.numberOfLanes = ${nLanes = 1}

##########################################################
#                    Position helper                     #
##########################################################

*.node[*].helper_type = "PositionHelper"
*.node[*].helper.nLanes = ${nLanes}
*.node[*].helper.platoonSize = ${platoonSize}
*.node[*].helper.nCars = ${nCars}

##########################################################
#               Scenario common parameters               #
##########################################################

#controller and engine related parameters
*.node[*].scenario.caccC1 = 0.5
*.node[*].scenario.caccXi = 1
*.node[*].scenario.caccOmegaN = 0.2 Hz
*.node[*].scenario.engineTau = 0.5 s
*.node[*].scenario.ploegH = ${ploegH = 0.5}s
*.node[*].scenario.ploegKp = 0.2
*.node[*].scenario.ploegKd = 0.7
*.node[*].scenario.useRealisticEngine = false

#used controller
*.node[*].scenario.controller = "ACC"

#ACC time headway. other controllers ignore this
*.node[*].scenario.accHeadway = 1 s
*.node[*].scenario.leaderHeadway = 1 s

#average leader speed
*.node[*].scenario.leaderSpeed = 0 kmph

##########################################################
#                      Application                       #
##########################################################

*.node[*].appl_type = "SimplePlatooningApp"
#enable statistics recording for the application
*.node[*].appl.*.scalar-recording = true
*.node[*].appl.*.vector-recording = true

##########################################################
#                Communication protocols                 #
##########################################################

*.node[*].protocol_type = "SimplePlatooningBeaconing"
#enable statistics recording for the network layer
*.node[*].prot.*.scalar-recording = true
*.node[*].prot.*.vector-recording = true
#set the beaconing interval to be 0.1s
*.node[*].prot.beaconingInterval = 0.1s
#access category for platooning beacons
*.node[*].prot.priority = 4
#packet size for platooning beacon
*.node[*].prot.packetSize = 200
#via wireless send acceleration computed by the controller, not the actual one
*.node[*].prot.useControllerAcceleration = true
#set to 0 the packet loss rate for the unicast protocol
*.node[*].unicast.packetLossRate = 0

##########################################################
#                    Traffic manager                     #
##########################################################

**.traffic_type = "veinsbdi.traffic.PDRTrafficManager"
**.traffic.vehicleVType = "vVoter"
**.separation = ${seperation = 850 ,900, 950, 1000, 1050, 1100 ,1150, 1200, 1250, 1300}m

**.scalar-recording = true
**.vector-recording = true

[Config PDR]

*.manager.useGui = false

#use the sinusoidal scenario
*.node[*].scenario_type = "veinsbdi.scenarios.PDRScenario"

sim-time-limit = 40 s
