<routes>
  <vType accel=".1" decel=".2" id="RoadBlock" length="2.0" maxSpeed="5.0" sigma="1.5" />
  <vType accel=".1" decel=".2" id="Human" length="2.0" maxSpeed="5.0" sigma="1.5" />
  <vType accel=".5" decel=".2" id="Tesla" length="2.0" maxSpeed="5.0" sigma="1" color="1,.3,.3" />
  <vType accel=".1" decel=".2" id="BMW" length="2.0" maxSpeed="5.0" sigma="1" color="1,1,1" />
  <vType accel=".1" decel=".2" id="Audi" length="2.0" maxSpeed="5.0" sigma="1.25" color=".3,.3,1" />
  <vType accel=".1" decel=".2" id="Volvo" length="2.0" maxSpeed="5.0" sigma=".75" color=".5,.5,.5" />
  <vType accel=".5" decel=".2" id="Crash" length="2.0" maxSpeed="5.0" sigma=".75" color=".1,.4,.5" />
  <vType id="vtypeauto" accel="2.5" decel="9.0" sigma="0.5" length="4" minGap="0" maxSpeed="1000" color="1,0,0" probability="1" speedFactor="1000"
      carFollowModel="CC" tauEngine="0.5" omegaN="0.2" xi="1" c1="0.5" lanesCount="4" ccAccel="1.5" ploegKp="0.2" ploegKd="0.7" ploegH="0.5" />
  <vType id="vtypemerger" accel="2.5" decel="6.0" sigma="0.5" length="4" minGap="0" maxSpeed="27.77778" color="0,0,1" probability="1" >
  </vType>

  <route id="platoon_route" edges="0to1 1to2"/>
  <route id="route0" edges="0to1 1to2"/>
  <route id="route1" edges="ar0to1 1to2"/>

  <!--<flow id="platoon" route="platoon_route" type="vtypeauto" begin="0" period="1" departLane="0" number="8" departSpeed="27.77"/>-->

  <!--vehicle depart="1" departLane="0" id="0_crash" route="route1" type="Crash" /-->

  <!--vehicle depart="6" departLane="0" id="0_roadBlock" route="route0" type="Tesla" /-->




</routes>
