<?xml version="1.0" encoding="UTF-8"?>

<!-- generated on ter 31 jul 2018 17:52:01 WEST by Netedit Version 0.32.0
<?xml version="1.0" encoding="UTF-8"?>

<configuration xmlns:xsi="http://www.w3.org/2001/XMLSchema-instance" xsi:noNamespaceSchemaLocation="http://sumo.dlr.de/xsd/netconvertConfiguration.xsd">

    <output>
        <output-file value="/home/miguel/Documents/Omnetpp/samples/veinstest/simulations/customSim/demo.net.xml"/>
    </output>

    <processing>
        <no-turnarounds value="true"/>
        <offset.disable-normalization value="true"/>
    </processing>

</configuration>
-->

<net version="0.27" xmlns:xsi="http://www.w3.org/2001/XMLSchema-instance" xsi:noNamespaceSchemaLocation="http://sumo.dlr.de/xsd/net_file.xsd">

    <location netOffset="0.00,0.00" convBoundary="-40.00,80.00,800.00,80.00" origBoundary="10000000000.00,10000000000.00,-10000000000.00,-10000000000.00" projParameter="!"/>

    <edge id=":1_0" function="internal">
        <lane id=":1_0_0" index="0" speed="13.89" length="3.00" shape="401.50,81.65 398.50,81.65"/>
    </edge>
    <edge id=":1_1" function="internal">
        <lane id=":1_1_0" index="0" speed="13.89" length="4.46" shape="398.50,75.05 401.50,78.35"/>
    </edge>

    <edge id="0to1" from="0" to="1" priority="1">
        <lane id="0to1_0" index="0" speed="13.89" length="438.50" shape="-40.00,75.05 398.50,75.05"/>
        <lane id="0to1_1" index="1" speed="13.89" length="438.50" shape="-40.00,78.35 398.50,78.35"/>
    </edge>
    <edge id="1to0" from="1" to="0" priority="1">
        <lane id="1to0_0" index="0" speed="13.89" length="438.50" shape="398.50,81.65 -40.00,81.65"/>
    </edge>
    <edge id="1to2" from="1" to="2" priority="1">
        <lane id="1to2_0" index="0" speed="13.89" length="398.50" shape="401.50,78.35 800.00,78.35"/>
    </edge>
    <edge id="2to1" from="2" to="1" priority="1">
        <lane id="2to1_0" index="0" speed="13.89" length="398.50" shape="800.00,81.65 401.50,81.65"/>
    </edge>

    <junction id="0" type="dead_end" x="-40.00" y="80.00" incLanes="1to0_0" intLanes="" shape="-40.00,79.95 -40.00,83.25 -40.00,80.05"/>
    <junction id="1" type="priority" x="400.00" y="80.00" incLanes="2to1_0 0to1_0 0to1_1" intLanes=":1_0_0 :1_1_0" shape="401.50,83.25 401.50,76.75 398.50,73.45 398.50,83.25">
        <request index="0" response="00" foes="00" cont="0"/>
        <request index="1" response="00" foes="00" cont="0"/>
    </junction>
    <junction id="2" type="dead_end" x="800.00" y="80.00" incLanes="1to2_0" intLanes="" shape="800.00,80.05 800.00,76.75 800.00,79.95"/>

    <connection from="0to1" to="1to2" fromLane="0" toLane="0" via=":1_1_0" dir="s" state="M"/>
    <connection from="2to1" to="1to0" fromLane="0" toLane="0" via=":1_0_0" dir="s" state="M"/>

    <connection from=":1_0" to="1to0" fromLane="0" toLane="0" dir="s" state="M"/>
    <connection from=":1_1" to="1to2" fromLane="0" toLane="0" dir="s" state="M"/>

</net>
