<?xml version="1.0" encoding="UTF-8"?>

<!-- generated on Qui 09 Ago 2018 18:09:22 WEST by Netedit Version 0.30.0
<?xml version="1.0" encoding="UTF-8"?>

<configuration xmlns:xsi="http://www.w3.org/2001/XMLSchema-instance" xsi:noNamespaceSchemaLocation="http://sumo.dlr.de/xsd/netconvertConfiguration.xsd">

    <input>
        <sumo-net-file value="/home/miguel/Documents/BDI4Veins/veinsBDI/simulations/simpleLaneMerge/slm.net.xml"/>
    </input>

    <output>
        <output-file value="/home/miguel/Documents/BDI4Veins/veinsBDI/simulations/simpleLaneMerge/slm.net.xml"/>
    </output>

    <processing>
        <no-turnarounds value="true"/>
        <offset.disable-normalization value="true"/>
        <lefthand value="false"/>
        <junctions.corner-detail value="0"/>
        <rectangular-lane-cut value="false"/>
    </processing>

</configuration>
-->

<net version="0.27" xmlns:xsi="http://www.w3.org/2001/XMLSchema-instance" xsi:noNamespaceSchemaLocation="http://sumo.dlr.de/xsd/net_file.xsd">

    <location netOffset="0.00,0.00" convBoundary="200.00,-10.00,800.00,80.00" origBoundary="-10000000000.00,-10000000000.00,10000000000.00,10000000000.00" projParameter="!"/>

    <edge id=":1_0" function="internal">
        <lane id=":1_0_0" index="0" speed="13.89" length="10.80" shape="394.86,81.65 384.07,81.65"/>
    </edge>
    <edge id=":1_1" function="internal">
        <lane id=":1_1_0" index="0" speed="13.89" length="10.84" shape="384.85,71.38 387.59,72.82 389.57,73.98 391.69,74.76 394.86,75.05"/>
    </edge>
    <edge id=":1_2" function="internal">
        <lane id=":1_2_0" index="0" speed="13.89" length="10.80" shape="384.07,75.05 394.86,75.05"/>
        <lane id=":1_2_1" index="1" speed="13.89" length="10.80" shape="384.07,78.35 394.86,78.35"/>
    </edge>

    <edge id="0to1" from="0" to="1" priority="1">
        <lane id="0to1_0" index="0" speed="13.89" length="184.07" shape="200.00,75.05 384.07,75.05"/>
        <lane id="0to1_1" index="1" speed="13.89" length="184.07" shape="200.00,78.35 384.07,78.35"/>
    </edge>
    <edge id="1to0" from="1" to="0" priority="1">
        <lane id="1to0_0" index="0" speed="13.89" length="184.07" shape="384.07,81.65 200.00,81.65"/>
    </edge>
    <edge id="1to2" from="1" to="2" priority="1">
        <lane id="1to2_0" index="0" speed="13.89" length="405.14" shape="394.86,75.05 800.00,75.05"/>
        <lane id="1to2_1" index="1" speed="13.89" length="405.14" shape="394.86,78.35 800.00,78.35"/>
    </edge>
    <edge id="2to1" from="2" to="1" priority="1">
        <lane id="2to1_0" index="0" speed="13.89" length="405.14" shape="800.00,81.65 394.86,81.65"/>
    </edge>
    <edge id="ar0to1" from="ar0" to="1" priority="1" shape="200.00,-10.00 400.00,80.00">
        <lane id="ar0to1_0" index="0" speed="13.89" length="201.97" shape="200.68,-11.50 384.85,71.38"/>
    </edge>

    <junction id="0" type="dead_end" x="200.00" y="80.00" incLanes="1to0_0" intLanes="" shape="200.00,79.95 200.00,83.25 200.00,80.05"/>
    <junction id="1" type="unregulated" x="400.00" y="80.00" incLanes="2to1_0 ar0to1_0 0to1_0 0to1_1" intLanes=":1_0_0 :1_1_0 :1_2_0 :1_2_1" shape="394.86,83.25 394.86,73.45 385.51,69.92 384.20,72.83 384.07,73.45 384.07,83.25"/>
    <junction id="2" type="dead_end" x="800.00" y="80.00" incLanes="1to2_0 1to2_1" intLanes="" shape="800.00,80.05 800.00,73.45 800.00,79.95"/>
    <junction id="ar0" type="dead_end" x="200.00" y="-10.00" incLanes="" intLanes="" shape="200.02,-10.05 201.33,-12.96"/>

    <connection from="0to1" to="1to2" fromLane="0" toLane="0" via=":1_2_0" dir="s" state="M"/>
    <connection from="0to1" to="1to2" fromLane="1" toLane="1" via=":1_2_1" dir="s" state="M"/>
    <connection from="2to1" to="1to0" fromLane="0" toLane="0" via=":1_0_0" dir="s" state="M"/>
    <connection from="ar0to1" to="1to2" fromLane="0" toLane="0" via=":1_1_0" dir="s" state="M"/>

    <connection from=":1_0" to="1to0" fromLane="0" toLane="0" dir="s" state="M"/>
    <connection from=":1_1" to="1to2" fromLane="0" toLane="0" dir="s" state="M"/>
    <connection from=":1_2" to="1to2" fromLane="0" toLane="0" dir="s" state="M"/>
    <connection from=":1_2" to="1to2" fromLane="1" toLane="1" dir="s" state="M"/>

</net>
