<routes>
  <vType id="vRouter" accel="2.5" decel="9.0" sigma="0.5" length="4" minGap="0" maxSpeed="1000" color="1,0,0" probability="1" speedFactor="1000"
      carFollowModel="CC" tauEngine="0.5" omegaN="0.2" xi="1" c1="0.5" lanesCount="4" ccAccel="1.5" ploegKp="0.2" ploegKd="0.7" ploegH="0.5" />

  <route id="route1" edges="s,n1 n1,n3 n3,n6 n6,d"/>
  <route id="route2" edges="s,n1 n1,n2 n2,n5 n5,d"/>
  <route id="route3" edges="s,n1 n1,n3 n3,n4 n4,n5 n5,d"/>



</routes>
