<?xml version="1.0" encoding="UTF-8"?>

<!-- generated on Dom 18 Nov 2018 19:25:37 WET by Eclipse SUMO netedit Version 619df18
<configuration xmlns:xsi="http://www.w3.org/2001/XMLSchema-instance" xsi:noNamespaceSchemaLocation="http://sumo.dlr.de/xsd/netconvertConfiguration.xsd">

    <input>
        <sumo-net-file value="/home/miguel/Documents/BDI4Veins/veinsBDI/simulations/routing/sumocfg/slm.net.xml"/>
    </input>

    <output>
        <output-file value="/home/miguel/Documents/BDI4Veins/veinsBDI/simulations/routing/sumocfg/slm.net.xml"/>
    </output>

    <processing>
        <no-internal-links value="true"/>
        <no-turnarounds value="true"/>
        <offset.disable-normalization value="true"/>
        <lefthand value="false"/>
        <junctions.corner-detail value="0"/>
        <rectangular-lane-cut value="false"/>
        <walkingareas value="false"/>
    </processing>

</configuration>
-->

<net version="0.27" xmlns:xsi="http://www.w3.org/2001/XMLSchema-instance" xsi:noNamespaceSchemaLocation="http://sumo.dlr.de/xsd/net_file.xsd">

    <location netOffset="0.00,0.00" convBoundary="-100.00,60.00,200.00,100.00" origBoundary="-10000000000.00,-10000000000.00,10000000000.00,10000000000.00" projParameter="!"/>

    <edge id="0,1" from="0" to="1" priority="1">
        <lane id="0,1_0" index="0" speed="13.89" length="80.00" shape="-100.00,78.40 -21.50,78.40"/>
    </edge>
    <edge id="1,2" from="1" to="2" priority="1">
        <lane id="1,2_0" index="0" speed="13.89" length="72.80" shape="-13.17,80.29 50.01,98.34"/>
    </edge>
    <edge id="1,3" from="1" to="3" priority="1">
        <lane id="1,3_0" index="0" speed="13.89" length="72.80" shape="-13.17,76.39 48.12,58.87"/>
    </edge>
    <edge id="2,5" from="2" to="5" priority="1">
        <lane id="2,5_0" index="0" speed="13.89" length="95.62" shape="50.45,98.40 140.50,98.40"/>
    </edge>
    <edge id="3,4" from="3" to="4" priority="1">
        <lane id="3,4_0" index="0" speed="13.89" length="53.85" shape="59.41,62.04 100.59,78.51"/>
    </edge>
    <edge id="3,6" from="3" to="6" priority="1">
        <lane id="3,6_0" index="0" speed="13.89" length="100.00" shape="60.12,58.40 150.00,58.40"/>
    </edge>
    <edge id="4,5" from="4" to="5" priority="1">
        <lane id="4,5_0" index="0" speed="13.89" length="47.74" shape="100.59,78.51 141.20,94.76"/>
    </edge>
    <edge id="5,7" from="5" to="7" priority="1">
        <lane id="5,7_0" index="0" speed="13.89" length="58.08" shape="151.99,97.48 194.89,80.32"/>
    </edge>
    <edge id="6,7" from="6" to="7" priority="1">
        <lane id="6,7_0" index="0" speed="13.89" length="48.53" shape="150.59,58.51 194.89,76.23"/>
    </edge>

    <junction id="0" type="dead_end" x="-100.00" y="80.00" incLanes="" intLanes="" shape="-100.00,80.00 -100.00,76.80"/>
    <junction id="1" type="priority" x="-20.00" y="80.00" incLanes="0,1_0" intLanes="" shape="-13.61,81.82 -12.73,78.75 -12.73,77.92 -13.61,74.85 -21.50,76.80 -21.50,80.00">
        <request index="0" response="00" foes="00"/>
        <request index="1" response="00" foes="00"/>
    </junction>
    <junction id="2" type="priority" x="50.00" y="100.00" incLanes="1,2_0" intLanes="" shape="50.45,100.00 50.45,96.80 49.57,99.88">
        <request index="0" response="0" foes="0"/>
    </junction>
    <junction id="3" type="priority" x="50.00" y="60.00" incLanes="1,3_0" intLanes="" shape="58.82,63.53 60.01,60.56 60.12,60.00 60.12,56.80 47.68,57.34 48.56,60.41">
        <request index="0" response="00" foes="00"/>
        <request index="1" response="00" foes="00"/>
    </junction>
    <junction id="4" type="priority" x="100.00" y="80.00" incLanes="3,4_0" intLanes="" shape="100.00,80.00 101.19,77.03 100.00,80.00">
        <request index="0" response="0" foes="0"/>
    </junction>
    <junction id="5" type="priority" x="150.00" y="100.00" incLanes="4,5_0 2,5_0" intLanes="" shape="152.58,98.97 151.39,96.00 141.80,93.27 140.61,96.24 140.50,96.80 140.50,100.00">
        <request index="0" response="00" foes="10"/>
        <request index="1" response="01" foes="01"/>
    </junction>
    <junction id="6" type="priority" x="150.00" y="60.00" incLanes="3,6_0" intLanes="" shape="150.00,60.00 151.19,57.03 150.00,56.80">
        <request index="0" response="0" foes="0"/>
    </junction>
    <junction id="7" type="dead_end" x="200.00" y="80.00" incLanes="6,7_0 5,7_0" intLanes="" shape="195.49,74.75 194.30,77.72 194.30,78.83 195.49,81.80"/>

    <connection from="0,1" to="1,3" fromLane="0" toLane="0" dir="R" state="M"/>
    <connection from="0,1" to="1,2" fromLane="0" toLane="0" dir="s" state="M"/>
    <connection from="1,2" to="2,5" fromLane="0" toLane="0" dir="s" state="M"/>
    <connection from="1,3" to="3,6" fromLane="0" toLane="0" dir="s" state="M"/>
    <connection from="1,3" to="3,4" fromLane="0" toLane="0" dir="L" state="M"/>
    <connection from="2,5" to="5,7" fromLane="0" toLane="0" dir="s" state="m"/>
    <connection from="3,4" to="4,5" fromLane="0" toLane="0" dir="s" state="M"/>
    <connection from="3,6" to="6,7" fromLane="0" toLane="0" dir="s" state="M"/>
    <connection from="4,5" to="5,7" fromLane="0" toLane="0" dir="s" state="M"/>

</net>
