<routes>
  <vType id="vVoter" accel="2.5" decel="9.0" sigma="0.5" length="4" minGap="0" maxSpeed="1000" color="1,0,0" probability="1" speedFactor="1000"
      carFollowModel="CC" tauEngine="0.5" omegaN="0.2" xi="1" c1="0.5" lanesCount="4" ccAccel="1.5" ploegKp="0.2" ploegKd="0.7" ploegH="0.5" />
  <vType id="vNoise" accel="2.5" decel="9.0" sigma="0.5" length="4" minGap="0" maxSpeed="1000" color="0,1,0" probability="1" speedFactor="1000"
  carFollowModel="CC" tauEngine="0.5" omegaN="0.2" xi="1" c1="0.5" lanesCount="4" ccAccel="1.5" ploegKp="0.2" ploegKd="0.7" ploegH="0.5" />

  <route id="platoon_route" edges="0to1"/>



</routes>
