[General]
cmdenv-express-mode = true
cmdenv-autoflush = true
cmdenv-status-frequency = 10s
num-rngs = 7
repeat = 100
network = MergeNetwork
ned-path = .

##########################################################
#            Simulation parameters                       #
##########################################################
debug-on-errors = true
print-undisposed = true

*.playgroundSizeX = 65000m
*.playgroundSizeY = 25000m
*.playgroundSizeZ = 50m

sim-time-limit = 3 s

**.debug = false
**.coreDebug = false

##########################################################
# Annotation parameters                                  #
##########################################################
*.annotations.draw = false

##########################################################
# Obstacle parameters                                    #
##########################################################
*.obstacles.debug = false

##########################################################
#            WorldUtility parameters                     #
##########################################################
*.world.useTorus = false
*.world.use2D = false

##########################################################
#            TraCIScenarioManager parameters             #
##########################################################
*.*.updateInterval = 0.01s #Double asterix in order to sync update times with TraCI and LightJason Managers. This must also match the timestep in sumo.cfg, see simple Lane Merge
*.manager.host = "localhost"
*.manager.moduleType = "veinsbdi.phy.PlatoonCar"#"org.car2x.veins.modules.application.platooning.PlatoonCar"
*.manager.moduleName = "node "
*.manager.moduleDisplayString = ""
*.manager.autoShutdown = true
*.manager.margin = 17

##########################################################
#            11p specific parameters                     #
#                                                        #
#                    NIC-Settings                        #
##########################################################
*.connectionManager.sendDirect = true
*.connectionManager.maxInterfDist = 2600m
*.connectionManager.drawMaxIntfDist = true

*.**.nic.mac1609_4.useServiceChannel = false

*.**.nic.mac1609_4.txPower = 32mW
*.**.nic.mac1609_4.bitrate = 6Mbps

*.**.nic.phy80211p.sensitivity = -94dBm
*.**.nic.phy80211p.maxTXPower = 100mW
*.**.nic.phy80211p.useThermalNoise = true
*.**.nic.phy80211p.thermalNoise = -95dBm
*.**.nic.phy80211p.decider = xmldoc("config.xml")
*.**.nic.phy80211p.analogueModels = xmldoc("config.xml")
*.**.nic.phy80211p.usePropagationDelay = true

##########################################################
#                      Mobility                          #
##########################################################
*.node[*].mobility.x = 0
*.node[*].mobility.y = 0
*.node[*].mobility.z = 1.895

##########################################################
#                    Seeds and PRNGs                     #
##########################################################
seed-set = ${repetition}#${platoonSize}
**.seed = ${repetition}#${platoonSize}

*.node[*].unicast.rng-0 = 1
*.node[*].prot.rng-0 = 2
*.node[*].appl.rng-0 = 3
*.node[*].scenario.rng-0 = 4
**.traffic.rng-0 = 5

#launch config. tells Veins which SUMO configuration to run
*.manager.configFile = "./sumocfg/slm.sumo.cfg"

##########################################################
#                   Common parameters                    #
###############################################	###########

**.numberOfCars = ${nCars = 15}
**.numberOfCarsPerPlatoon = ${platoonSize = 4}
**.numberOfLanes = ${nLanes = 1}

##########################################################
#                    Position helper                     #
##########################################################

*.node[*].helper_type = "DynamicPositionHelper"
**.helper.nLanes = ${nLanes}
**.helper.platoonSize = ${platoonSize}
**.helper.nCars = ${nCars}

##########################################################
#               Scenario common parameters               #
##########################################################

#controller and engine related parameters
**.scenario.caccC1 = 0.5
**.scenario.caccXi = 1
**.scenario.caccOmegaN = 0.2 Hz
**.scenario.engineTau = 0.5 s
**.scenario.ploegH = 0.5 s
**.scenario.ploegKp = 0.2
**.scenario.ploegKd = 0.7
**.scenario.useRealisticEngine = false
#via wireless send acceleration computed by the controller, not the actual one
**.scenario.useControllerAcceleration = true

#This associates a controller type to each run. Maybe reduce this
#controllers to be tested
**.numericController = 1
*.node[*].scenario.controller = "CACC"

#headway for ACCs
*.node[*].scenario.accHeadway = 1s
*.node[*].scenario.leaderHeadway = 1.2s
*.node[*].scenario.platooningVType = ${vtype = "vBargain"}
#average leader speed
*.node[*].scenario.leaderSpeed = 100 kmph

##########################################################
#                Communication protocols                 #
##########################################################

*.node[*].protocol_type = "SimplePlatooningBeaconing"
#enable statistics recording for the network layer
*.node[*].prot.*.scalar-recording = false
*.node[*].prot.*.vector-recording = false
#set the beaconing interval to be 0.1s
**.prot.beaconingInterval = 0.1s
#access category for platooning beacons
**.prot.priority = 2
#packet size for platooning beacon
**.prot.packetSize = 200
#set to 0 the packet loss rate for the unicast protocol
**.unicast.packetLossRate = 0.1

##########################################################
#                      Application                       #
##########################################################
*.node[*].appl.*.scalar-recording = true
*.node[*].appl.*.vector-recording = false
*.node[*].appl_type = "veinsbdi.app.plexeappl.concrete.laneMerge.LaneMergeAgent"
*.node[*].appl.joinManeuver = "JoinAtBackAgent"
*.node[*].scenario_type = "veinsbdi.scenarios.LaneMergeScenario"
*.node[*].appl.asl_file = "bargainAgent.asl"

##########################################################
#                    Traffic manager                     #
##########################################################
**.traffic_type = "veinsbdi.traffic.LaneTrafficManager"
#SUMO vtype for platooning vehicles
**.traffic.vType = ${vtype}

##########################################################
#            LightJason Manager parameters               #
##########################################################
*.ljmanager.agentManager = "CBargainAgentManager"
*.ljmanager.*.scalar-recording = true
*.ljmanager.*.vector-recording = true
*.ljmanager.iteration = ${repetition}
*.ljmanager.statisticsCollector = "CBaseStatistics"
*.ljmanager.useBulkAgentCreation = true


#disable statistics recording for all other modules
**.scalar-recording = false
**.vector-recording = false
*.manager.useGui = false

[Config BaseScenario]

*.manager.useGui = false

[Config vehicles50]

**.traffic.vPairs = ${vPairs = 25 }
**.traffic.lanePairs = ${vLanes = 1 }
*.ljmanager.vehicleCount = ${$vPairs * $vLanes * 2}

[Config vehicles100]

**.traffic.vPairs = ${vPairs = 25 }
**.traffic.lanePairs = ${vLanes = 2 }
*.ljmanager.vehicleCount = ${$vPairs * $vLanes * 2}

[Config vehicles150]

**.traffic.vPairs = ${vPairs = 25 }
**.traffic.lanePairs = ${vLanes = 3 }
*.ljmanager.vehicleCount = ${$vPairs * $vLanes * 2}

[Config vehicles200]

**.traffic.vPairs = ${vPairs = 25 }
**.traffic.lanePairs = ${vLanes = 4 }
*.ljmanager.vehicleCount = ${$vPairs * $vLanes * 2}

[Config vehicles250]

**.traffic.vPairs = ${vPairs = 125 }
**.traffic.lanePairs = ${vLanes = 1 }
*.ljmanager.vehicleCount = ${$vPairs * $vLanes * 2}

[Config vehicles300]

**.traffic.vPairs = ${vPairs = 50 }
**.traffic.lanePairs = ${vLanes = 3 }
*.ljmanager.vehicleCount = ${$vPairs * $vLanes * 2}

[Config vehicles350]

**.traffic.vPairs = ${vPairs = 175 }
**.traffic.lanePairs = ${vLanes = 1 }
*.ljmanager.vehicleCount = ${$vPairs * $vLanes * 2}

[Config vehicles400]

**.traffic.vPairs = ${vPairs = 50 }
**.traffic.lanePairs = ${vLanes = 4 }
*.ljmanager.vehicleCount = ${$vPairs * $vLanes * 2}

[Config vehicles450]

**.traffic.vPairs = ${vPairs = 75 }
**.traffic.lanePairs = ${vLanes = 3 }
*.ljmanager.vehicleCount = ${$vPairs * $vLanes * 2}

[Config vehicles500]

**.traffic.vPairs = ${vPairs = 125 }
**.traffic.lanePairs = ${vLanes = 2 }
*.ljmanager.vehicleCount = ${$vPairs * $vLanes * 2}

[Config vehicles550]

**.traffic.vPairs = ${vPairs = 275 }
**.traffic.lanePairs = ${vLanes = 1 }
*.ljmanager.vehicleCount = ${$vPairs * $vLanes * 2}

[Config vehicles600]

**.traffic.vPairs = ${vPairs = 75 }
**.traffic.lanePairs = ${vLanes = 4 }
*.ljmanager.vehicleCount = ${$vPairs * $vLanes * 2}

[Config vehicles650]

**.traffic.vPairs = ${vPairs = 325 }
**.traffic.lanePairs = ${vLanes = 1 }
*.ljmanager.vehicleCount = ${$vPairs * $vLanes * 2}

[Config vehicles700]

**.traffic.vPairs = ${vPairs = 175 }
**.traffic.lanePairs = ${vLanes = 2 }
*.ljmanager.vehicleCount = ${$vPairs * $vLanes * 2}

[Config vehicles750]

**.traffic.vPairs = ${vPairs = 125 }
**.traffic.lanePairs = ${vLanes = 3 }
*.ljmanager.vehicleCount = ${$vPairs * $vLanes * 2}

[Config vehicles800]

**.traffic.vPairs = ${vPairs = 100 }
**.traffic.lanePairs = ${vLanes = 4 }
*.ljmanager.vehicleCount = ${$vPairs * $vLanes * 2}

[Config vehicles850]

**.traffic.vPairs = ${vPairs = 425 }
**.traffic.lanePairs = ${vLanes = 1 }
*.ljmanager.vehicleCount = ${$vPairs * $vLanes * 2}

[Config vehicles900]

**.traffic.vPairs = ${vPairs = 150 }
**.traffic.lanePairs = ${vLanes = 3 }
*.ljmanager.vehicleCount = ${$vPairs * $vLanes * 2}

[Config vehicles950]

**.traffic.vPairs = ${vPairs = 475 }
**.traffic.lanePairs = ${vLanes = 1 }
*.ljmanager.vehicleCount = ${$vPairs * $vLanes * 2}

[Config vehicles1000]

**.traffic.vPairs = ${vPairs = 125 }
**.traffic.lanePairs = ${vLanes = 4 }
*.ljmanager.vehicleCount = ${$vPairs * $vLanes * 2}
