<routes>
    <vType accel="1.0" decel="5.0" id="Car" length="2.0" maxSpeed="50.0" sigma="0.0" />
    <route id="route0" edges="0to1"/>
    <vehicle depart="1" departlane="0" id="veh0" route="route0" type="Car" />
    <vehicle depart="1" departlane="1" id="veh1" route="route0" type="Car" />
</routes>