<?xml version="1.0" encoding="UTF-8"?>

<!-- generated on ter 31 jul 2018 16:15:17 WEST by Netedit Version 0.26.0
<?xml version="1.0" encoding="UTF-8"?>

<configuration xmlns:xsi="http://www.w3.org/2001/XMLSchema-instance" xsi:noNamespaceSchemaLocation="http://sumo.dlr.de/xsd/netedit.exeConfiguration.xsd">

    <output>
        <output-file value="/home/miguel/Documents/Omnetpp/samples/veinstest/simulations/customSim/custom.net.xml"/>
    </output>

    <processing>
        <no-turnarounds value="true"/>
        <offset.disable-normalization value="true"/>
    </processing>

</configuration>
-->

<net version="0.25" xmlns:xsi="http://www.w3.org/2001/XMLSchema-instance" xsi:noNamespaceSchemaLocation="http://sumo.dlr.de/xsd/net_file.xsd">

    <location netOffset="0.00,0.00" convBoundary="-72.00,67.00,1000.00,67.00" origBoundary="10000000000.00,10000000000.00,-10000000000.00,-10000000000.00" projParameter="!"/>

    <edge id="0to1" from="gneJ0" to="gneJ1" priority="1">
        <lane id="0to1_0" index="0" speed="13.89" length="1072.00" shape="-72.00,62.05 1000.00,62.05"/>
        <lane id="0to1_1" index="1" speed="13.89" length="1072.00" shape="-72.00,65.35 1000.00,65.35"/>
    </edge>
    <edge id="1to0" from="gneJ1" to="gneJ0" priority="1">
        <lane id="1to0_0" index="0" speed="13.89" length="1072.00" shape="1000.00,68.65 -72.00,68.65"/>
    </edge>

    <junction id="gneJ0" type="unregulated" x="-72.00" y="67.00" incLanes="1to0_0" intLanes="" shape="-72.00,66.95 -72.00,60.45 -72.00,70.25 -72.00,67.05"/>
    <junction id="gneJ1" type="unregulated" x="1000.00" y="67.00" incLanes="0to1_0 0to1_1" intLanes="" shape="1000.00,67.05 1000.00,70.25 1000.00,60.45 1000.00,66.95"/>

</net>
